
 OpenBabel03071213D

 34 34  0  0  0  0  0  0  0  0999 V2000
   47.2120   -7.5950   45.0960 C   0  0  0  0  0
   48.4860   -7.1660   37.5940 C   0  0  0  0  0
   37.2320   -7.0420   41.7530 C   0  0  0  0  0
   40.9210   -5.9560   39.2800 O   0  0  0  0  0
   40.0560   -6.6030   37.4070 O   0  0  0  0  0
   39.1060   -5.8530   42.6120 O   0  0  0  0  0
   41.5310  -10.4150   42.5320 O   0  0  0  0  0
   43.6990   -7.3120   39.1520 O   0  0  0  0  0
   46.2970   -8.6590   44.4560 C   0  0  0  0  0
   47.8110   -7.0500   38.9560 C   0  0  0  0  0
   44.8320   -8.3460   44.6090 C   0  0  0  0  0
   48.2450   -8.1770   39.8460 C   0  0  0  0  0
   44.5660   -7.8230   43.2340 C   0  0  0  0  0
   47.1110   -8.3990   40.8150 C   0  0  0  0  0
   41.6990   -9.0630   38.9650 C   0  0  0  0  0
   44.7100   -8.9130   42.1970 C   0  0  0  0  0
   45.9760   -7.4140   40.6620 C   0  0  0  0  0
   40.4190   -8.2680   39.0470 C   0  0  0  0  0
   40.3370   -9.1430   44.5400 C   0  0  0  0  0
   39.1190   -8.1370   42.6840 N   0  0  0  0  0
   41.6440   -8.4970   41.2870 N   0  0  0  0  0
   40.9440   -6.7480   47.9960 C   0  0  0  0  0
   39.8670   -6.4910   47.1700 C   0  0  0  0  0
   41.8470   -7.7250   47.6860 C   0  0  0  0  0
   39.6950   -7.2530   46.0320 C   0  0  0  0  0
   41.6560   -8.4730   46.5580 C   0  0  0  0  0
   42.4830   -9.0200   40.2520 C   0  0  0  0  0
   40.4290   -8.3780   43.2510 C   0  0  0  0  0
   44.7440   -8.1380   40.9630 N   0  0  0  0  0
   40.4930   -6.8380   38.5340 C   0  0  0  0  0
   38.6300   -6.9520   42.3340 C   0  0  0  0  0
   41.2440   -9.2240   42.2990 C   0  0  0  0  0
   40.5850   -8.2550   45.7300 C   0  0  0  0  0
   43.6920   -8.1070   40.1010 C   0  0  0  0  0
  1  9  1  0  0  0
  2 10  1  0  0  0
  3 31  1  0  0  0
  4 30  1  0  0  0
  5 30  2  0  0  0
  6 31  2  0  0  0
  7 32  2  0  0  0
  8 34  2  0  0  0
  9 11  1  0  0  0
 10 12  1  0  0  0
 11 13  1  0  0  0
 12 14  1  0  0  0
 13 16  1  0  0  0
 14 17  1  0  0  0
 15 18  1  0  0  0
 15 27  1  0  0  0
 16 29  1  0  0  0
 17 29  1  0  0  0
 18 30  1  0  0  0
 19 28  1  0  0  0
 19 33  1  0  0  0
 20 28  1  0  0  0
 20 31  1  0  0  0
 21 27  1  0  0  0
 21 32  1  0  0  0
 22 23  2  0  0  0
 22 24  1  0  0  0
 23 25  1  0  0  0
 24 26  2  0  0  0
 25 33  2  0  0  0
 26 33  1  0  0  0
 27 34  1  0  0  0
 28 32  1  0  0  0
 29 34  1  0  0  0
M  END
>  <MOLID> (1a07C1)
1a07C1

>  <SMILES_CANONICAL> (1a07C1)
CCCCCN(C(=O)[C@@H](NC(=O)[C@H](Cc1ccccc1)NC(=O)C)CCC(=O)O)CCCCC

>  <FINGERPRINT> (1a07C1)
0000000000000011000000000000000000000001000000000011001000000000000000000001000000000001000000000000010000000001000001100000000000000000000110000000000000000000000000000000000000000000000000000000000000000000000000000000000000100000000000000000000000001100000000000000000000001000100000000000000000001010000010001100000000001000001100000000000000000000010000000000000110110000000000000000011000000000100000000011001000000001000000000010000000000001100000000000000000000000000000000000000000001100000000000000100000000000000000000000000000000000000000100000000000000000000000000000000001000000000000000000100000000000000000000000001000000001000000000000000000000001000000000011100000100100000011100000000000000001000000000000000000000011100000110101000000000000000110000000000000000000000010000000000010000000000000000000000000000000000000000000000000000000000000000001000000000000000000000000000000001100000000000000000000000000000000000000011000000000000010110010000000000000010000000000000000000000100000000010111000000000

>  <MACCS166> (1a07C1)
000000000000000000000000000000000000000000000000010001000000000000000000000100100000110001110010001000010001011001111100011000011011000101111100011110101111111110111000

>  <OB_MW> (1a07C1)
475.305

>  <OB_logP> (1a07C1)
4.0742

>  <OB_PSA> (1a07C1)
115.81

>  <OB_MR> (1a07C1)
133.612

>  <OB_ATOMIC_CHARGES> (1a07C1)
7.239e-07 7.239e-07 0.0964360916 -0.2456528549 -0.2456528549 -0.2733176309 -0.2714639273 -0.2730193827 5.6798e-05 5.6798e-05 0.0017564359 0.0017564359 0.0215042241 0.0215042241 0.0428375596 0.0934469668 0.0934469668 0.1163334599 0.0574143192 -0.1974115514 -0.1963727168 -2.0017e-05 -0.0003216891 -0.0003216891 -0.0041981883 -0.0041981883 0.1718309996 0.1770286683 -0.2781595937 0.3649311582 0.2422709385 0.2619480689 -0.0199564339 0.2455051572

>  <MCT_HBD> (1a07C1)
3

>  <MCT_HBA> (1a07C1)
8

>  <ENSEMBLE_TOTAL> (1a07C1)
50

>  <ENSEMBLE_COORDS> (1a07C1)
0.8772 -6.0194 1.4479 -1.4537 0.1536 8.5481 2.6766 -0.4110 -5.2901 4.2059 2.5283 0.6269 3.9014 0.2869 0.3301 2.3282 1.5604 -3.9851 1.2636 -1.2156 -0.9893 -1.7263 1.2372 1.4992 0.7448 -4.5638 1.0775 -1.1060 0.5693 7.1412 0.7436 -3.7229 2.3291 -1.9775 -0.1757 6.1616 -0.2517 -2.6010 2.1793 -1.9640 0.5430 4.8359 1.3365 1.8404 1.5931 0.1914 -1.4162 3.0050 -1.9577 -0.4625 3.7099 2.7138 1.4490 2.0782 -1.2410 -0.2836 -2.7948 1.0703 -0.3491 -3.5573 0.2794 0.7641 -0.2869 -3.3906 2.0465 -5.6753 -3.4559 2.3978 -4.3783 -2.6227 0.8809 -6.0739 -2.7431 1.6218 -3.3776 -1.9693 0.1574 -5.1483 0.5741 0.6238 1.1195 0.1691 0.2363 -2.5927 -0.7614 -0.3315 2.9083 3.6492 1.3288 0.9167 2.0182 0.3981 -4.2193 0.6460 -0.1817 -1.2219 -2.0087 0.5578 -3.7510 -0.7598 0.5527 1.8343
0.8940 -5.9038 3.3431 -1.8379 2.0280 7.2349 2.7704 1.3757 -5.8845 4.3175 -0.9191 1.0909 5.0989 0.9320 2.1754 1.7648 2.7837 -4.2360 2.0415 -0.7052 -1.8574 -0.5468 1.9303 1.6621 0.6668 -4.4241 3.5137 -1.5294 0.7855 6.4392 0.0724 -3.8248 2.2617 -1.7734 1.0630 4.9777 -0.0470 -2.3386 2.4761 -1.5557 -0.1991 4.1863 2.0684 1.0918 0.9916 -0.9153 -1.6853 1.4256 -2.1635 -0.0619 2.8082 2.7405 0.4243 2.1686 -0.7178 -0.5307 -3.4596 1.3494 0.4923 -4.2171 0.4863 0.6480 -0.7917 -4.6293 1.1820 -3.8120 -4.0148 0.7140 -4.9135 -3.9576 1.1219 -2.5262 -2.6783 0.1538 -4.8164 -2.7217 0.5997 -2.4345 0.8450 0.3076 0.5653 0.3709 0.4787 -3.1554 -1.1669 -0.3010 1.7870 4.1780 0.2085 1.8284 1.9118 1.6559 -4.6926 1.0776 0.0530 -1.8889 -2.0465 0.1157 -3.6288 -0.3521 0.7481 1.3786
1.8736 -5.4307 4.8128 -1.9177 2.8631 6.0557 2.7363 1.9867 -5.9362 3.4435 0.1582 3.2135 5.0467 -0.4905 1.7240 1.8654 2.9411 -3.9264 1.4569 -1.2169 -2.6426 -0.6956 1.2675 1.0976 1.6115 -3.9760 4.5155 -1.3714 1.5326 5.6006 0.8176 -3.8656 3.2376 -1.9601 1.1571 4.2624 0.4678 -2.4223 2.9959 -1.6679 -0.2954 3.9736 2.0424 0.0904 0.5501 -0.4198 -2.2830 1.7805 -2.1073 -0.6588 2.5701 2.7333 -1.0135 1.3130 -1.0343 -0.0258 -4.1076 1.2083 0.8043 -4.5621 0.4215 0.2992 -1.2187 -4.6131 1.9383 -2.8096 -4.1134 0.9361 -2.0644 -3.9392 2.3422 -4.0305 -2.9043 0.2525 -2.4876 -2.8124 1.7177 -4.4164 0.7006 -0.3779 0.0278 0.2002 0.6436 -3.5453 -0.9701 -0.9439 1.7180 3.8771 -0.4260 2.0710 1.8971 1.9894 -4.6986 0.7809 -0.2126 -2.4488 -2.2684 0.6384 -3.6093 -0.3859 0.0807 0.9846
0.3893 -6.2028 2.4423 -5.1687 1.2335 3.2485 1.5137 -0.1696 -5.9397 4.5358 -0.7376 1.2051 5.9329 1.0162 1.6248 1.5925 1.7685 -4.5443 1.7305 -1.1246 -1.3921 -0.3201 1.7409 1.9197 -0.1291 -4.7858 2.4174 -4.0910 0.2132 2.9788 1.0031 -3.8031 2.5987 -2.9089 0.4937 3.8732 0.5560 -2.4269 2.1683 -1.8473 -0.5581 3.6746 2.6654 1.5684 1.1503 1.2464 -1.3611 2.9919 -0.5000 -0.0161 4.0997 3.6085 1.1403 2.2535 -1.2693 -0.2436 -2.2655 0.6746 -0.2107 -3.7301 0.9170 0.7634 -0.3138 -4.2730 2.4190 -3.7563 -3.7654 2.6347 -2.5294 -3.8296 1.2766 -4.5340 -2.7560 1.7386 -1.9934 -2.9007 0.4410 -4.0366 1.5508 0.5575 0.9687 0.1220 0.3127 -2.5019 0.4590 -0.1429 3.0249 4.8254 0.5032 1.6633 1.2732 0.5925 -4.6749 1.0185 -0.1259 -1.3642 -2.3217 0.6980 -2.7278 0.4662 0.7970 2.0001
0.1550 -6.2125 0.7733 -1.8745 1.5174 8.4844 1.6957 3.5396 -4.8111 5.0110 0.7319 1.7779 3.7696 -1.1531 1.4400 0.1264 3.6757 -3.0141 2.2195 0.0367 -1.6077 -1.1854 1.4359 1.7076 -0.6701 -4.9824 1.0527 -1.2957 1.7220 7.1081 0.0648 -4.0798 2.0115 -1.6978 0.5860 6.2001 -0.6646 -2.7637 2.1027 -0.9509 0.7256 4.8982 1.8682 1.3482 1.2776 0.2310 -1.7241 2.7313 -1.4117 -0.3153 3.9078 2.7551 0.8230 2.3843 -0.1326 -0.4837 -3.5177 1.0816 1.6273 -3.5692 0.2946 0.5493 -0.4132 -3.7451 -0.0445 -5.7803 -3.8023 -0.6245 -4.5678 -2.4694 0.3982 -6.3133 -2.5915 -0.7851 -3.7805 -1.3465 0.2375 -5.5915 0.8056 0.3296 0.9197 0.2298 0.7819 -2.7653 -0.4508 -0.4525 2.8361 3.8663 0.0092 1.8035 0.8661 2.9804 -3.7001 1.0507 0.4055 -1.5573 -1.4137 -0.3461 -4.2608 -0.3885 0.5064 1.8329
-0.5717 -5.6540 -0.5153 0.8109 -0.5890 7.6524 2.2580 -1.8420 -5.3469 3.2104 3.9500 3.4625 1.3704 2.7744 4.1246 2.5154 0.3669 -4.4728 1.4453 -1.4182 -0.9283 -0.9311 1.8087 1.6285 -1.0690 -4.2854 -0.1271 0.2736 0.3382 6.5922 -0.2727 -3.7344 1.0319 -0.7275 -0.4017 5.7423 -0.7952 -2.3541 1.3445 -1.2404 0.5137 4.6600 1.9149 2.0615 1.1662 0.1888 -1.5601 2.1727 -1.5060 -0.2771 3.4023 2.8015 1.9173 2.3802 -1.1811 -0.3629 -2.5634 0.9261 -1.0667 -3.5563 0.7374 0.7456 -0.4747 -3.4835 1.6352 -5.5741 -3.3398 0.2990 -5.6307 -2.8458 2.3891 -4.5091 -2.5466 -0.3872 -4.6270 -2.1106 1.7538 -3.5785 1.1319 0.7906 0.9163 0.3156 -0.1266 -2.6438 -0.3614 -0.2622 2.5160 2.3544 2.9020 3.4121 1.9301 -0.7089 -4.4278 0.9044 -0.3715 -1.2706 -1.9383 0.3115 -3.6510 -0.1684 0.8446 1.6926
3.0461 -5.5807 4.4314 -3.7835 3.4909 2.9495 1.7083 0.7816 -6.4067 4.9765 0.1638 2.0969 3.4002 -0.6009 3.5555 1.7664 2.1237 -4.4308 1.0977 -1.6155 -2.4786 0.2605 1.2676 1.5269 2.7396 -4.1185 4.2303 -3.4969 2.0644 2.5540 1.6386 -3.9571 3.2104 -2.5604 1.4378 3.5558 1.0311 -2.5871 3.3649 -2.3513 -0.0156 3.2071 2.5555 -0.2145 0.3923 0.0867 -2.2769 2.2257 -0.9068 -0.3838 3.4416 3.3024 -1.2277 1.2271 -1.5907 -0.0941 -3.2465 0.4887 0.1789 -4.4723 0.5669 0.0476 -0.9471 -4.4013 3.0179 -2.3687 -4.2901 2.5676 -3.6314 -3.5510 2.4719 -1.3261 -3.3234 1.5319 -3.9499 -2.6574 1.5105 -1.6197 1.0959 -0.5868 0.2405 -0.1424 0.3442 -3.1852 -0.2868 -0.8749 2.2291 3.8637 -0.5337 2.4273 1.3363 1.1272 -5.0002 0.5831 -0.5387 -2.1965 -2.5257 1.0331 -2.9880 0.3233 0.0459 1.3814
-0.1205 -5.6230 1.2282 -5.3761 0.0395 5.0658 2.2243 -0.3321 -6.0166 5.7500 1.4118 0.5028 5.4098 0.8566 2.6896 2.1183 1.5053 -4.4919 1.9154 -1.3268 -1.6083 -0.1259 2.0579 1.4086 -0.4933 -4.1631 1.1900 -4.4387 0.2950 3.9127 0.1191 -3.4381 2.3629 -3.0100 0.1269 4.3722 -0.3670 -2.0120 2.3621 -2.0868 0.7657 3.3670 2.7432 1.0860 0.8608 0.6644 -1.1009 2.9853 -0.6581 0.7775 3.8683 3.8790 0.0970 0.9878 -1.0688 -0.7104 -2.7202 0.9522 -0.4570 -4.0288 0.8980 0.5044 -0.6026 -4.2369 2.1583 -2.4334 -3.6683 1.6940 -1.3069 -3.7987 1.6610 -3.7254 -2.6045 0.7100 -1.3857 -2.8137 0.7479 -3.8001 1.4321 0.3441 0.7311 0.2758 -0.0197 -2.8301 0.2519 0.2815 2.8542 5.0746 0.8200 1.5161 1.7724 0.3633 -4.7710 1.1273 -0.3872 -1.6329 -2.1748 0.2730 -2.5831 0.4346 0.9937 1.6714
-1.2981 -6.1558 1.2810 -0.2286 0.4080 8.0432 1.7459 4.0366 -4.8167 3.9218 -0.6981 1.1845 4.9864 0.9563 2.3390 -0.0386 3.8623 -3.2370 2.4087 0.4563 -1.7084 -1.2086 1.7734 1.3730 -1.7158 -4.7390 1.5876 -0.8670 1.1152 6.8747 -0.5093 -3.8804 1.8838 -1.1010 0.1345 5.7528 -0.8106 -2.4458 1.5193 -1.5181 0.8840 4.5124 1.8648 1.4650 1.2132 -0.0507 -1.4968 2.4192 -1.8153 -0.0864 3.3932 2.5812 0.8103 2.3744 0.3571 -0.2841 -3.7891 1.2286 1.9821 -3.7664 0.3864 0.8976 -0.6539 -3.7453 -1.2352 -4.5405 -3.1657 -1.7009 -3.4195 -2.9736 -0.4490 -5.4863 -1.7709 -1.4018 -3.1471 -1.6802 -0.1776 -5.2393 0.7616 0.5586 0.7011 0.4598 1.0156 -3.0186 -0.6973 -0.2003 2.4837 3.9614 0.4033 1.9711 0.8651 3.3078 -3.8518 1.2192 0.7534 -1.7431 -1.0629 -0.6539 -4.0130 -0.4903 0.7849 1.5236
3.9141 -2.9180 6.2684 -5.2052 -1.6332 5.4557 0.8427 -1.3397 -6.0836 5.2096 -0.6175 -0.4061 3.6402 -2.1103 -1.1239 1.7722 0.4718 -4.8330 0.3079 -1.7872 -1.6520 -0.0670 1.8152 1.4732 3.1958 -1.7293 5.6846 -4.5941 -0.9698 4.2474 2.2367 -2.1779 4.6098 -3.1285 -0.7161 4.4946 1.4796 -0.9699 4.1242 -2.5714 0.1284 3.3757 2.4938 0.2610 0.7883 0.4757 -1.3513 3.0620 -1.1155 0.4219 3.6367 3.3519 -0.9677 0.9787 -1.8138 0.4319 -2.6285 -0.1450 -0.6031 -4.0664 0.6249 0.3139 -0.7229 -3.3006 4.1782 -4.0779 -3.6468 3.0410 -4.7070 -2.4057 4.1308 -2.9354 -3.1299 1.7680 -4.2399 -1.9255 2.9513 -2.5013 1.0464 -0.1307 0.5841 -0.3383 0.1997 -2.8826 -0.2719 -0.1868 2.6301 4.0456 -1.3018 -0.3026 0.8952 -0.3777 -4.9404 0.2270 -0.5645 -1.7093 -2.2905 1.7228 -3.1896 0.1906 0.6167 1.5888
1.0290 -5.5405 0.9973 -4.7662 -0.6692 5.4337 -0.8181 -4.2498 -2.6615 4.1210 1.5942 2.5789 4.7264 3.3879 1.3035 -1.4855 -2.6923 -0.9762 1.8375 -0.3237 -2.2758 -0.4735 1.8157 1.6174 0.4607 -4.1739 1.2873 -3.7243 -0.9291 4.3772 1.5681 -3.2378 1.7039 -2.3909 -0.3759 4.8160 1.0564 -2.3167 2.7803 -1.3958 -0.6483 3.7214 2.1270 1.8965 0.1815 1.6687 -0.9405 2.6401 -0.1541 0.1966 3.8794 3.5832 1.5150 0.3022 -0.5722 0.2306 -3.9735 -0.4251 -1.9322 -2.9030 0.3422 0.5073 -0.7043 -2.6672 3.9659 -3.9612 -1.3353 3.9597 -3.7745 -3.3814 2.7143 -4.1393 -0.6132 2.7005 -3.7544 -2.7146 1.5460 -4.1105 1.2594 0.6755 0.3996 -0.5449 -0.5138 -2.6523 0.6480 0.0896 2.6778 4.1986 2.2921 1.4206 -0.9644 -2.8850 -2.0680 0.6936 -0.1273 -1.8784 -1.2763 1.5373 -3.8917 0.3832 0.9312 1.6065
2.4462 -4.4988 0.7347 -5.0753 -0.8777 1.2728 0.0381 -3.6359 -4.1294 4.2653 0.6291 -0.4750 5.1680 2.6450 0.0919 1.4030 -1.6829 -3.9476 -0.0855 -1.7190 -0.0340 -0.9477 1.6809 1.5970 1.4211 -3.9448 1.6915 -3.8253 -1.4091 1.9279 1.9771 -2.7260 2.3867 -3.3343 -0.4250 2.9606 0.9025 -2.1075 3.2440 -2.0892 -0.9656 3.6183 2.0140 1.9813 0.9957 1.1582 -0.6299 3.4401 -1.1319 0.1589 3.9453 3.4234 1.6758 1.4480 -1.9166 0.0428 -1.9980 -0.5708 -1.8371 -2.7233 0.7387 0.4308 -0.3413 -1.8451 4.2417 -2.8547 -1.7395 3.8317 -1.5784 -2.0349 3.2683 -3.9159 -1.8025 2.4159 -1.2703 -2.0775 1.9543 -3.6302 1.1826 0.7157 1.0039 -0.5177 -0.5343 -2.1034 -0.0029 0.1391 3.0406 4.3680 1.7428 0.2894 0.3863 -2.2777 -3.6093 0.0570 -0.7100 -0.7155 -1.9244 1.5083 -2.2556 -0.0286 0.9192 1.8936
3.6553 -4.4104 5.3632 -5.3200 2.0147 2.3109 1.3502 0.2313 -6.3958 4.9438 -1.5432 2.1430 5.4695 -0.8846 0.0221 1.7336 1.7776 -4.6154 1.0191 -1.5473 -2.2713 0.1735 1.4453 1.6260 2.9563 -3.1204 5.0249 -4.5045 0.7474 2.3385 1.9321 -3.3128 3.9300 -3.3689 0.8888 3.3207 1.2875 -1.9686 3.7034 -2.5853 -0.3996 3.3544 2.4553 -0.2248 0.5839 0.1872 -2.0002 2.6714 -1.1190 -0.1036 3.5478 3.2119 -1.5323 0.5709 -1.7321 0.1056 -2.8882 0.2125 0.0360 -4.3353 0.4761 0.1368 -0.7711 -3.9083 3.7269 -2.2003 -3.1341 3.2404 -1.2137 -4.0361 2.9993 -3.4506 -2.4115 1.9967 -1.4082 -3.3597 1.8515 -3.6343 0.9716 -0.4885 0.4320 -0.2474 0.3848 -3.0129 -0.3369 -0.6602 2.4657 4.6552 -1.2658 0.8492 1.1349 0.7902 -5.0256 0.4849 -0.4755 -2.0076 -2.4920 1.3463 -2.5839 0.2452 0.2181 1.5559
1.3451 -7.5221 2.6402 0.9996 2.4414 6.4108 3.5619 -1.8411 -4.1075 -0.5574 4.0690 0.2628 1.2737 3.6181 1.5415 1.5204 -2.4705 -3.0353 1.8246 1.3135 -1.0200 -1.9498 -1.5910 0.6340 0.6300 -6.4116 1.9146 0.4499 2.1328 5.0413 0.3830 -5.2441 2.8396 1.1658 0.9352 4.4709 0.0965 -4.0285 1.9935 0.1642 -0.1383 4.1287 -1.1698 1.2931 0.7309 -0.6919 -2.9955 2.7617 0.7192 -0.9983 3.0196 -0.7172 2.2807 1.7816 0.4521 1.6430 -3.6399 1.9754 -0.2239 -3.4443 0.0804 -0.1934 -0.7247 -3.7150 2.6212 -3.5697 -3.2618 1.7812 -4.5178 -2.7890 3.2163 -2.6229 -1.8499 1.4455 -4.5752 -1.4801 2.9152 -2.6839 -0.2359 0.1051 0.6526 0.7377 0.3273 -2.9426 -0.3492 -1.6647 2.3102 0.1314 3.3626 1.1894 2.2338 -1.5760 -3.4741 0.9651 0.5620 -1.4682 -0.9982 1.9652 -3.6726 -0.9447 -1.1294 1.1749
0.9285 -7.3295 3.2859 1.9596 1.0886 7.2277 2.5716 -1.8164 -4.5121 1.3919 3.7915 1.0013 -0.5342 4.6131 1.9065 0.5466 -2.1793 -3.2971 1.8621 1.2484 -0.8845 -2.0648 -1.2378 0.9820 0.6396 -6.1419 2.4033 1.6488 1.3182 5.7695 -0.3862 -5.2549 3.0637 1.8503 0.0385 4.9965 -0.6606 -4.0675 2.1759 0.5695 -0.3374 4.2937 -0.8216 1.5046 1.3259 -0.9778 -2.8536 3.0170 0.8757 -1.2334 3.1159 0.0775 2.3045 2.2400 0.2289 2.0481 -3.2623 1.4651 -0.0431 -3.4101 -0.0899 0.0531 -0.4835 -3.2138 2.2456 -5.8049 -2.0647 1.7515 -6.2994 -3.2605 2.7496 -4.4437 -0.8795 1.6983 -5.4630 -2.1640 2.6966 -3.6660 -0.1385 0.2069 0.9501 0.4041 0.6462 -2.7162 -0.3430 -1.6748 2.4711 0.2378 3.6888 1.7023 1.4051 -1.3925 -3.6795 0.8322 0.7082 -1.2734 -0.9342 2.1219 -4.1864 -0.9620 -0.9601 1.4536
4.6502 -2.9070 5.4411 -5.7234 -0.8065 4.6216 -0.8806 -2.4207 -5.7194 5.5819 0.0809 0.3537 4.4487 -1.8870 0.5864 0.7589 -0.8234 -5.0348 -0.6989 -1.7757 -1.1062 -0.1730 1.6115 1.2251 3.4104 -2.0596 5.3157 -4.7309 -0.7532 3.4883 2.6902 -2.3761 4.0280 -3.3645 -0.3869 4.0127 1.8022 -1.2080 3.6838 -2.3300 -0.7838 2.9896 2.5360 0.7141 0.3086 0.8312 -1.5742 2.5869 -1.0168 -0.1013 3.2799 3.4743 0.1763 1.3616 -2.2011 0.6463 -2.4457 -1.1699 -1.1204 -3.7655 0.6457 0.1175 -1.0481 -2.1236 4.7588 -3.6484 -1.3552 4.3696 -2.6152 -2.9839 3.7976 -4.3150 -1.3771 2.9857 -2.1767 -2.9964 2.5128 -3.9168 1.2467 -0.0779 0.2517 -0.9172 -0.0693 -2.8118 -0.0357 -0.4542 2.2773 4.5201 -0.6750 0.7209 -0.3212 -1.3630 -4.8232 -0.3336 -0.7018 -1.5717 -2.1432 2.0850 -2.8200 0.2795 0.4688 1.2854
1.7214 -6.7682 3.9081 1.6521 1.3522 7.0232 3.1443 -2.3162 -4.1518 1.1303 3.3874 0.7293 -0.8907 4.4131 0.4695 1.0014 -2.6126 -3.1374 1.8293 1.0802 -1.0868 -2.1007 -1.5792 0.5703 1.4697 -5.3660 3.4135 0.6151 0.7607 6.1030 -0.0130 -5.1440 3.2469 1.2720 0.2858 4.8312 -0.2534 -4.1171 2.1684 0.2054 -0.0094 3.8083 -1.3038 1.2882 0.6396 -0.9319 -2.9038 2.7603 0.6940 -1.0540 2.8333 -0.7379 2.2947 1.6139 0.6131 1.6223 -3.7273 1.8183 -0.4658 -3.5179 -0.0971 -0.1986 -0.8553 -3.2914 3.3243 -4.1676 -2.5650 3.6238 -3.0758 -2.7621 2.4081 -5.1624 -1.2479 3.0394 -2.8999 -1.5475 1.8551 -4.9927 -0.3759 0.0981 0.5275 0.6670 0.2699 -3.0462 -0.4199 -1.6920 2.1630 -0.2140 3.4763 0.8648 1.8609 -1.8421 -3.5489 0.8914 0.4515 -1.5652 -0.7659 2.1712 -3.8082 -1.0677 -1.1334 1.0695
4.2638 -3.1525 5.9968 -5.2040 0.1544 1.8193 -1.8653 -2.4778 -5.4555 4.8997 1.5142 1.5880 5.0178 -0.6930 2.1460 0.0805 -1.1344 -5.1100 -0.8238 -1.8462 -1.0597 -0.3820 1.1178 1.3600 3.4476 -2.0676 5.3396 -4.1375 -0.8914 2.0233 2.5653 -2.6621 4.2693 -3.1374 -0.4029 3.0399 2.2598 -1.6106 3.2327 -2.0609 -1.4436 3.2182 2.4136 0.7048 0.4082 1.0941 -2.0341 2.3697 -0.7290 -0.7613 3.4095 3.7335 -0.0075 0.2267 -2.2009 0.8169 -2.1673 -1.6463 -1.0937 -3.5515 0.6117 -0.0185 -1.0392 -1.9056 4.8789 -3.4927 -2.7191 4.0325 -4.1501 -1.1214 4.4035 -2.3670 -2.8204 2.6472 -3.7260 -1.2120 3.1202 -1.9750 1.2519 -0.2495 0.2375 -1.0938 -0.0754 -2.6897 0.1205 -0.9658 2.2594 4.5983 0.2035 1.4293 -1.0195 -1.4959 -4.7092 -0.4434 -0.7734 -1.5174 -2.0838 2.2024 -2.6916 0.2481 0.0610 1.3289
0.6807 -5.7217 2.7956 -2.4262 -0.5127 7.9189 -3.4363 -2.9891 -1.6200 3.6483 1.8807 -0.2668 3.1323 4.1009 -0.1533 -3.3249 -0.7263 -0.8617 0.9716 -1.0880 -1.5757 -1.6232 0.5694 1.5940 0.9129 -4.6327 1.7790 -1.3048 -0.2346 6.9504 1.7998 -3.5626 2.3661 -1.4666 -1.0918 5.7196 1.7643 -2.3448 1.4742 -0.8159 -0.3980 4.5504 0.7375 2.3054 0.9414 1.5335 -1.0956 2.2938 -0.6525 -1.3584 3.3960 2.1552 2.5373 1.4075 -0.4738 -0.2522 -4.0186 -1.7710 -1.5099 -2.4088 -0.0949 0.7987 -0.7403 0.4321 3.6158 -5.6180 1.3929 2.9325 -4.9706 -0.9018 3.0543 -5.7386 1.0973 1.6292 -4.4037 -1.1800 1.8525 -5.2018 0.5300 0.8555 0.5602 -1.0548 -0.2724 -2.6187 0.1254 -0.7577 2.3346 3.0034 2.9547 0.2489 -2.8619 -1.6094 -1.5741 0.0588 -0.2697 -1.5989 -0.1444 1.1175 -4.4941 -0.4431 0.2236 1.5330
1.9591 -5.4553 2.3478 -3.4307 -2.2026 6.7287 -3.1185 -3.5792 -2.5680 4.0605 3.5081 0.5053 3.9179 1.7825 1.9914 -3.2207 -1.6102 -1.2185 1.0658 -1.2438 -1.9087 -1.0185 1.6095 1.5935 1.2533 -4.1784 1.9653 -3.1894 -1.5821 5.3770 2.1338 -2.9935 2.2777 -1.9417 -0.7358 5.4183 1.3702 -2.0154 3.1323 -1.4456 -0.5493 4.0100 1.4718 1.8456 -0.0660 1.6535 -0.5946 2.6991 -0.2386 0.3581 3.9787 2.9508 1.5744 -0.2071 -0.5016 -0.0184 -4.1064 -1.5996 -1.7952 -2.8785 -0.2343 0.2210 -0.6582 -0.4767 4.2066 -4.8066 0.6032 3.6282 -4.2507 -1.6460 3.4057 -5.1236 0.6046 2.2006 -3.9853 -1.6508 2.0855 -4.8642 0.7514 0.5778 0.3341 -1.0569 -0.4611 -2.7680 0.4411 0.1995 2.7106 3.6769 2.2704 0.8979 -2.6773 -2.2187 -2.1331 0.0581 -0.5622 -1.7552 -0.4854 1.4602 -4.2597 -0.0397 0.8621 1.5900
0.1900 -7.4962 2.0642 2.7852 2.0041 4.9263 3.9751 -1.2661 -3.5952 1.4950 3.7612 1.2787 -0.2783 4.7203 2.3426 2.1536 -2.0267 -2.2472 1.4821 1.8502 -1.0740 -2.2863 -0.9010 0.7491 0.4852 -6.0184 1.9952 1.6635 1.1089 5.3888 -0.6944 -5.2251 2.5042 1.7931 -0.2426 4.7329 -0.8366 -3.9615 1.6900 0.4673 -0.6386 4.1351 -0.8514 1.7106 1.1756 -1.2386 -2.8000 2.5701 0.6908 -1.2796 2.7865 -0.0433 2.3183 2.3001 0.2568 1.5343 -3.8074 2.0910 0.0989 -3.1891 -0.1807 0.2738 -0.6807 -3.9791 1.8876 -4.3202 -3.3753 2.5869 -3.3427 -3.1989 1.0047 -5.1695 -1.9422 2.4685 -3.1479 -1.8729 0.8815 -4.9786 -0.2454 0.3831 0.7601 0.7188 0.4307 -2.8748 -0.5720 -1.5844 2.1514 0.3340 3.7289 1.9751 2.6403 -1.1364 -2.9341 0.7479 0.9435 -1.4528 -1.2219 1.6309 -3.9165 -1.1525 -0.7502 1.2046
4.7841 -2.8447 5.4282 -5.0531 0.6159 0.7964 -0.0350 -2.2592 -5.7056 5.3995 -0.1864 0.3214 3.9620 -1.9585 0.3707 1.2876 -0.5539 -4.6797 -0.7885 -1.7602 -1.0746 -0.4373 1.3682 1.4960 3.5586 -1.9878 5.2472 -4.2744 -0.5004 1.4437 2.7804 -2.4274 4.0306 -3.3385 0.0666 2.4803 1.6871 -1.4177 3.7962 -2.4961 -1.0483 3.0495 2.3392 0.7527 0.5645 0.8043 -1.8102 2.6353 -1.1330 -0.5210 3.4224 3.3766 0.1134 1.4558 -2.2338 0.4994 -2.6456 -0.8006 -1.0863 -3.8008 0.5080 0.1584 -0.8682 -2.4572 4.7479 -2.1205 -1.8059 4.2622 -3.1924 -3.0498 3.8365 -1.1581 -1.7111 2.8274 -3.3949 -2.9393 2.5074 -1.3320 1.1130 -0.1236 0.4125 -0.8338 -0.0564 -2.7937 -0.1718 -0.7699 2.3696 4.2410 -0.8032 0.6534 0.2455 -1.1991 -4.6897 -0.3876 -0.6815 -1.4967 -2.2373 1.9799 -2.4907 0.0974 0.2600 1.4699
4.5907 -3.9528 4.5723 -4.9659 0.7734 4.5998 -2.9775 -3.4692 -3.3541 5.1009 1.4307 0.3520 4.4186 0.1609 2.1200 -2.9122 -2.0300 -1.4479 0.9786 -0.8973 -2.7431 -0.2751 1.4236 1.5311 3.6168 -2.8008 4.5387 -4.3069 -0.5611 4.3505 2.5249 -3.0974 3.5413 -2.8264 -0.4537 4.6185 2.1742 -1.8340 2.7991 -2.0502 -1.0073 3.4479 2.1117 0.7671 -0.0674 0.8202 -1.9755 2.1455 -0.6206 -0.5224 3.5146 3.3564 -0.0870 -0.0313 -1.0874 0.7207 -4.2090 -1.7471 -1.4538 -3.3799 -0.0597 0.2312 -0.9971 -1.2833 4.9570 -3.6147 -0.0872 4.3437 -3.5806 -2.4915 4.1802 -3.8257 -0.0059 2.9052 -3.7562 -2.4192 2.8453 -3.9778 0.8736 -0.0948 0.0581 -1.3081 -0.1363 -2.9763 0.0611 -0.7492 2.2597 4.3203 0.4985 0.9499 -2.5639 -2.2439 -2.6029 0.0028 -0.3387 -2.2528 -1.1265 2.1790 -3.9237 0.1636 0.2884 1.3415
4.0342 -3.6924 4.6020 -0.9084 -1.0367 7.7371 -5.0881 -1.2196 -1.8749 3.7825 0.7414 2.5238 4.3281 2.2625 0.9128 -3.8122 0.5829 -0.9629 -0.2831 -1.5943 -2.3219 -1.3725 1.0273 1.2313 2.7330 -2.9389 4.4817 -0.8883 -0.0374 6.6081 2.0996 -3.2078 3.1381 -1.6554 -0.5867 5.4312 1.6199 -1.9066 2.5457 -0.8916 -0.3013 4.1647 1.5032 1.0900 0.3006 0.3920 -2.1239 1.6902 -1.4300 -1.1382 3.0270 2.8543 0.4230 0.4004 -1.4293 0.1102 -4.4688 -2.9726 -0.6387 -2.7570 -0.2374 0.4651 -1.2480 0.9540 3.3700 -5.8955 1.5572 2.2194 -5.5468 -0.4838 3.5096 -5.7465 0.7668 1.1122 -5.0398 -1.2154 2.4882 -5.2658 0.4378 0.0716 -0.0353 -1.7984 0.1659 -3.0004 -0.5537 -1.0420 1.8808 3.7287 1.2614 1.2746 -3.9040 -0.3103 -1.7972 -0.7032 -0.4527 -2.1666 -0.5641 1.2441 -4.8895 -0.6000 0.0827 1.0669
4.1256 -5.1643 3.0676 -4.3839 1.3297 6.0356 -4.8358 1.8703 -1.0671 5.1952 -0.0896 -0.7241 3.9873 -2.0150 -0.9213 -2.7206 2.9403 -0.7698 -1.3976 -1.1055 -0.5984 0.3791 1.6841 2.1882 3.5142 -3.8405 2.6846 -3.9849 0.1070 5.2482 2.1929 -3.6683 3.3913 -2.4956 -0.1064 5.3583 1.8592 -2.2008 3.4816 -1.9013 -0.2362 3.9785 2.4225 0.5539 0.3679 0.6749 -1.8978 2.5916 -0.3947 -0.2446 4.0735 3.4650 -0.4394 0.8213 -1.2014 -0.0536 -3.4271 -2.8483 0.9306 -1.9378 0.1439 0.6201 -0.4034 0.0871 2.3046 -6.7645 1.0106 1.6797 -6.0114 -1.3214 2.1868 -6.4319 0.5982 0.8888 -4.8643 -1.7032 1.4574 -5.3688 1.0217 0.0159 0.5727 -1.4338 0.7447 -2.1604 0.1974 -0.5461 2.7893 4.2109 -0.9488 -0.3686 -3.3548 1.9981 -1.2307 -0.9159 -0.0450 -0.9824 -0.7049 0.7997 -4.5385 0.5121 0.4898 1.9204
4.1110 -4.2548 5.1620 -4.6867 0.9293 4.8344 -4.7344 -0.0895 -0.8438 4.5608 -0.2744 2.1355 6.0898 -0.3934 0.4503 -2.9427 1.3505 -0.1907 -0.4032 -1.7454 -1.7602 0.5079 1.4119 1.5245 3.4005 -3.0191 4.6709 -3.9657 -0.2412 4.2138 2.3247 -3.4023 3.6843 -2.4875 -0.1406 4.4996 2.2750 -2.3676 2.5895 -1.7222 -0.2393 3.2044 2.7578 0.2750 -0.0488 0.8621 -2.1637 2.0968 -0.2532 -0.4601 3.4790 3.7691 -0.8458 -0.0060 -1.2031 0.2226 -3.9118 -2.6767 -0.0795 -2.0069 0.5516 0.2401 -1.0283 -1.5066 3.9037 -6.0853 -0.2895 3.4435 -5.7443 -2.6947 3.1607 -5.7059 -0.1644 2.2058 -4.9942 -2.5800 2.0159 -5.0092 1.3554 -0.2894 0.0506 -1.3678 0.3765 -2.4132 0.4503 -0.7843 2.2579 4.9363 -0.4637 0.8481 -3.3626 0.4934 -0.9595 -0.3767 -0.5199 -1.7100 -1.2657 1.5298 -4.6187 0.7307 0.2154 1.3353
2.8975 -6.4259 2.2064 1.9463 1.4574 6.6920 0.7848 -3.8982 -3.1562 0.3636 3.7214 1.3963 -1.6748 4.5546 1.9948 -1.1842 -2.7762 -2.3996 1.5973 0.3501 -1.0143 -2.1549 -1.5319 0.8211 2.3166 -5.1294 1.7014 1.4313 1.7115 5.2972 1.2115 -4.6738 2.6211 1.8283 0.5715 4.3924 0.1519 -3.9649 1.8144 0.5925 -0.0631 3.8069 -1.7303 1.4083 1.2180 -0.4752 -2.8678 2.6414 0.9565 -0.8650 2.5793 -1.1612 2.2263 2.3530 0.7340 0.7522 -3.8161 0.6894 -1.5402 -3.0196 -0.7048 0.3602 -0.7001 -1.8619 4.0583 -4.6435 -1.9229 2.9688 -5.4305 -0.9109 4.1101 -3.5478 -1.0503 1.8364 -5.1729 -0.0970 3.0657 -3.3132 -0.7135 0.3952 0.7408 0.1167 -0.2277 -2.8387 -0.1984 -1.5716 2.0653 -0.8930 3.6216 1.8918 -0.0341 -2.6946 -2.8154 0.4548 0.1793 -1.4257 -0.1894 1.8721 -4.1395 -1.1161 -0.9910 1.1993
1.3292 -5.7336 1.5682 -4.4057 -1.8854 5.8415 -3.7559 -2.5758 -0.5395 3.9866 3.4042 -1.1441 4.6662 1.2298 -1.2501 -3.1577 -0.3559 0.1163 0.7797 -1.3583 -1.0962 -0.5490 1.9388 1.9871 0.8954 -4.3512 1.1482 -3.7757 -0.9218 4.8679 1.8025 -3.3084 1.7566 -2.2882 -0.8507 5.1109 0.9709 -2.3668 2.5887 -1.5833 -0.6568 3.7936 1.9433 2.2477 0.5082 1.5506 -0.9708 2.5909 -0.2390 0.0031 4.0003 3.4242 2.0011 0.6592 -0.8298 -0.3496 -3.4595 -2.0144 -1.3983 -1.6213 0.2752 0.8312 -0.4989 0.1803 3.4175 -5.2253 1.1665 2.5986 -4.8182 -1.2075 3.0433 -5.0177 0.8416 1.3249 -4.2029 -1.5101 1.8685 -4.4368 1.1705 0.9559 0.6256 -1.1887 -0.2742 -1.9905 0.4963 0.0138 2.7534 4.0878 2.1383 -0.6730 -2.9625 -1.3115 -0.6261 0.0614 -0.3662 -1.1504 -0.4441 0.9761 -4.0120 0.2831 1.0424 1.8456
1.3372 -5.5880 1.3166 -4.5966 -0.5376 5.4467 -4.6769 0.0334 0.2502 5.5365 1.9680 -0.1450 4.7913 -0.1098 -0.7264 -3.1617 1.8682 0.0355 -0.2580 -1.4125 -0.8230 -0.2008 2.0718 1.8334 0.9748 -4.1530 1.0318 -3.5067 -1.3400 4.7837 1.8176 -3.2383 1.8842 -2.1670 -0.7124 5.0756 0.9137 -2.2446 2.5609 -1.4357 -0.5281 3.7739 2.4039 1.6716 0.3312 1.6258 -0.9281 2.7619 -0.1621 0.2540 3.9837 3.6610 1.1530 0.9874 -1.5609 -0.2614 -3.2504 -2.7964 -0.0865 -1.1758 0.3532 0.8170 -0.5981 0.6292 1.9789 -6.1720 1.1981 0.8977 -5.6093 -0.7020 2.3924 -5.7647 0.4787 0.1440 -4.5981 -1.3664 1.6985 -4.8227 1.2669 0.6907 0.5128 -1.5903 0.3271 -1.8546 0.6632 0.1533 2.8012 4.6944 0.9108 -0.0623 -3.4711 0.7296 -0.2952 -0.4453 -0.2195 -1.0355 -0.7455 0.5389 -4.2023 0.4978 1.0609 1.7649
2.4932 -5.4243 -0.4801 -1.6993 1.4946 7.6616 -4.8529 -1.9697 -2.5398 1.5204 2.8281 3.2207 2.9196 4.1145 1.9583 -4.1040 0.1928 -1.8529 -0.2769 -1.8128 -1.1772 -1.5969 0.8172 1.8284 1.4858 -4.3374 -0.2013 -0.5683 0.6853 7.0779 2.0663 -3.3366 0.7675 -1.0818 -0.1425 5.9270 0.9743 -2.8127 1.6669 -0.1131 -0.0594 4.7740 0.8329 1.9795 0.4605 1.2827 -1.3910 2.0752 -0.5467 -1.0167 3.6889 2.1842 1.9722 1.1380 -0.5477 -0.7803 -3.9595 -2.5917 -1.3181 -2.7722 -0.6022 0.4511 -0.7588 1.9163 2.5319 -5.0980 0.6585 2.4635 -5.5702 2.4236 1.4853 -4.2293 -0.1954 1.3473 -5.2048 1.6353 0.4495 -3.8922 0.2973 0.5685 0.3632 -1.4438 -0.4428 -2.7857 0.0707 -0.6797 2.4273 2.2548 3.1014 2.1155 -3.8312 -0.8963 -2.3446 -0.7079 -0.7104 -1.4976 0.2677 0.3878 -4.3835 -0.5239 0.2602 1.5967
2.0471 -5.5732 -0.6135 -1.5278 1.6021 7.6174 -5.0425 -1.5146 -2.4202 1.7729 2.6781 3.2533 3.3103 3.8205 2.0126 -4.1066 0.5674 -1.7155 -0.4371 -1.7382 -1.1662 -1.4960 0.9077 1.8912 1.1496 -4.4020 -0.3036 -0.4960 0.6355 7.0916 1.8303 -3.4844 0.6819 -1.0587 -0.1051 5.9052 0.8014 -2.8957 1.6140 -0.0467 -0.1271 4.7868 1.0032 1.9189 0.4994 1.2195 -1.5047 2.0293 -0.5418 -1.0409 3.6917 2.3536 1.7813 1.1634 -0.6934 -0.6809 -3.9342 -2.7427 -1.0423 -2.6979 -0.5709 0.5385 -0.7222 2.0949 2.2963 -5.2384 2.5125 1.3275 -4.4043 0.7090 2.3356 -5.6700 1.5789 0.3167 -3.9428 -0.1604 1.4057 -5.2363 0.3508 0.5605 0.3859 -1.5260 -0.2639 -2.7383 0.0726 -0.7160 2.4263 2.5378 2.8844 2.1544 -3.9332 -0.5305 -2.2318 -0.7866 -0.6024 -1.4682 0.2902 0.3622 -4.3292 -0.4680 0.2832 1.6283
0.2688 -5.8072 0.8497 -4.0196 0.1579 5.6385 -4.4722 0.3071 0.6675 5.5888 2.3303 0.3985 4.5994 1.6302 2.3329 -2.8453 2.0027 0.2355 -0.3332 -1.5002 -0.9656 0.4046 1.9957 1.6988 0.1733 -4.3209 0.6169 -3.1935 -0.8265 4.8506 1.2941 -3.6206 1.3434 -1.7299 -0.4991 5.0077 0.7222 -2.5161 2.1913 -1.1243 -0.3376 3.6399 2.6514 1.3687 -0.1461 1.6894 -1.3567 2.2655 0.3252 0.0707 3.7476 3.9445 0.6791 0.2161 -1.8675 -0.2733 -3.1930 -2.7944 0.0119 -0.9712 0.4392 0.6848 -0.8070 0.3098 1.5948 -6.3753 0.7709 0.4461 -5.8488 -0.8971 2.2029 -5.8438 0.0584 -0.1860 -4.7528 -1.5535 1.6218 -4.8233 1.4765 0.4747 0.1723 -1.6675 0.3293 -1.8171 0.9715 -0.1151 2.4684 4.7179 1.5835 1.1180 -3.2873 0.8914 -0.0326 -0.4695 -0.2956 -1.1469 -1.0482 0.3873 -4.2444 0.8970 0.8838 1.5088
0.6755 -5.7288 -1.2899 2.7762 2.6837 5.3950 2.0043 -2.8198 -3.1475 -2.0225 4.0619 1.9916 0.1219 4.0612 2.7628 -0.0984 -2.4969 -2.0573 1.7102 0.9335 -0.3558 -1.7515 -1.6520 1.1724 1.0295 -5.6195 0.1722 1.6596 1.6971 5.6270 0.1606 -4.5820 0.8407 2.0412 0.3555 5.0521 0.9560 -3.8721 1.9102 0.8430 -0.2628 4.3773 -1.7089 1.2118 1.9932 0.0467 -3.0558 2.8009 1.2570 -0.9178 3.0800 -1.2690 2.1279 3.1108 0.4804 1.6255 -3.0338 1.2062 -0.6575 -2.6309 -0.5575 0.5652 -0.0162 -2.4936 2.2389 -6.0579 -2.6195 2.8740 -4.8787 -1.3740 1.3421 -6.2824 -1.6311 2.6691 -3.8336 -0.4597 1.1502 -5.3149 -0.5519 0.4208 1.4217 0.2745 0.3651 -2.2187 0.1473 -1.6448 2.4974 -0.9515 3.4992 2.6000 0.9065 -1.9990 -2.5514 0.5915 0.6531 -0.7722 -0.6012 1.8267 -4.0349 -0.7976 -1.0538 1.6709
4.4807 -4.4038 4.1858 -4.5554 -0.5585 5.8160 -5.0279 -1.3666 -1.1219 5.2491 0.9974 -0.0876 4.5704 -0.2300 1.7097 -3.6743 0.3427 -0.1445 -0.4001 -1.5775 -2.1344 0.0936 1.6035 1.5429 3.7626 -3.0803 4.0978 -3.8155 0.1868 4.7325 2.5246 -3.2386 3.2510 -2.3319 -0.0343 4.8899 2.2488 -1.9449 2.5314 -1.7594 -0.6267 3.6253 2.1960 0.6746 -0.3111 0.8222 -1.9128 2.0402 -0.2829 -0.3140 3.5504 3.3298 -0.3211 -0.3578 -1.7534 0.3750 -3.9833 -3.0783 -0.5803 -2.1981 -0.1011 0.4265 -0.9988 0.3980 3.8150 -5.3543 1.0616 2.6626 -5.1527 -1.0261 3.8895 -5.0824 0.3517 1.4941 -4.6655 -1.6837 2.8101 -4.6203 0.8825 -0.0259 -0.0427 -1.9381 0.2620 -2.4821 0.2401 -0.6019 2.2340 4.4207 0.1402 0.5553 -3.8659 -0.4264 -1.0791 -0.7438 -0.4308 -1.8676 -0.9634 1.5680 -4.3873 0.3689 0.4261 1.3094
0.4568 -3.0645 6.3650 3.2909 -0.7389 5.7906 3.1771 -1.8768 -4.4381 1.9908 2.8750 1.7558 0.1818 3.9132 2.6816 1.2751 -2.3388 -3.0680 1.4688 1.6006 -1.5233 -2.2720 -1.1413 0.4103 -0.6784 -2.5840 5.4959 2.8469 -0.2479 4.4364 -0.9074 -3.5692 4.3760 2.5819 -1.4192 3.5222 -1.7386 -2.9239 3.2930 1.1895 -1.2763 2.9740 -0.6387 1.2973 0.9800 -1.1671 -3.2509 1.9300 0.9931 -2.0836 1.7146 0.1389 1.5392 2.2525 0.1644 1.6770 -4.1880 1.6841 -0.1639 -3.7869 -0.2991 0.1418 -1.1327 -3.9982 2.6838 -4.2592 -3.5446 1.7328 -5.0958 -3.0740 3.3797 -3.3819 -2.1348 1.3850 -5.1037 -1.7671 3.0621 -3.3913 -0.1682 0.0260 0.3012 0.4350 0.4295 -3.3685 -0.4203 -2.1326 1.3949 0.7285 2.9115 2.2462 1.9338 -1.5147 -3.6910 0.6281 0.7988 -1.9172 -1.2847 2.0020 -4.2623 -1.0723 -1.1289 0.6879
3.8571 -5.8151 1.7826 2.4167 3.0897 4.9053 1.3141 -3.5599 -3.4819 -3.1261 2.7594 3.3672 -1.4349 1.7362 4.5008 -0.6856 -2.8027 -2.4158 1.6072 0.6797 -1.2968 -1.7179 -1.6850 0.6812 3.0592 -4.5460 1.6236 1.8009 1.7492 5.2193 1.6840 -4.7322 2.2136 2.2220 0.7422 4.1780 0.7074 -3.8390 1.4915 1.0096 0.0288 3.6359 -1.6976 1.2344 1.2272 0.1513 -2.8120 2.4493 1.3546 -0.6646 2.3387 -1.1647 2.2888 2.1681 0.4200 1.0093 -4.0221 0.8296 -1.2569 -3.2733 -0.6528 0.4530 -0.8083 -2.6622 3.9544 -4.4386 -2.8077 2.7703 -5.0605 -1.4588 4.2297 -3.6744 -1.7717 1.7584 -4.9479 -0.4988 3.2940 -3.5698 -0.5655 0.4265 0.6333 0.0646 -0.0609 -3.0083 0.2509 -1.4855 1.8862 -1.8957 2.2035 3.4705 0.3566 -2.5198 -2.9950 0.4607 0.3902 -1.6222 -0.6747 1.9985 -4.2067 -0.7517 -1.0167 1.0491
0.5623 -6.4585 4.9771 0.5510 2.7245 4.6267 3.0975 -1.8909 -4.0815 -3.2556 2.4631 2.5018 -1.4351 3.2237 1.3556 1.0420 -2.2220 -2.9096 1.5780 1.5510 -1.0929 -0.4067 -2.4465 0.0885 0.0814 -5.3685 4.0510 1.1249 1.3994 5.0634 1.1366 -5.0514 3.0179 2.0821 0.8873 4.0148 1.4207 -3.5705 3.0314 1.6005 -0.4404 3.4863 -1.5325 0.0877 1.1992 1.8453 -3.0743 1.6666 2.0597 -0.6361 2.0572 -1.4060 1.0362 2.3668 0.3605 1.9286 -3.7810 1.7086 -0.0697 -3.4934 -0.3022 0.2011 -0.8750 -3.7156 3.2109 -4.0748 -3.2497 2.3173 -4.9658 -2.8454 3.7128 -3.0268 -1.8722 1.8639 -4.8875 -1.5702 3.2929 -2.9523 -0.1887 -0.0922 0.5311 0.5156 0.6111 -3.0523 1.3416 -1.7354 1.4392 -2.0040 2.3533 1.9963 1.8293 -1.4408 -3.4315 0.6909 0.8550 -1.5748 -1.0680 2.3213 -3.9106 0.2236 -1.5438 0.6387
4.1111 -5.5031 2.6484 1.0377 2.2212 6.6565 -0.1386 -3.9068 -4.3425 -3.0506 3.6176 0.7119 -0.8642 4.2546 0.7579 -1.8368 -2.6448 -3.2309 1.4127 -0.8530 -1.0579 -1.9766 -2.0190 1.0442 3.0164 -4.8280 1.8600 0.6448 2.1854 5.2010 1.8011 -4.6344 2.7337 1.3442 1.0453 4.5015 0.7241 -3.9203 1.9543 0.3075 0.1812 3.8301 -1.9583 0.9662 0.9552 0.0041 -2.9294 2.8405 0.9274 -0.6490 2.7324 -1.5187 2.1657 1.7629 0.9550 0.5977 -3.6211 0.2782 -1.7226 -3.5486 -0.8131 -0.2435 -0.7809 -0.6125 4.5699 -3.3377 -1.0306 3.7778 -4.3413 0.3874 4.0903 -2.4008 -0.5003 2.4323 -4.4716 0.8801 2.8452 -2.5209 -0.7980 0.0452 0.6356 0.0222 -0.4160 -2.9885 -0.0252 -1.6179 2.2315 -1.7417 3.4419 1.0106 -0.6870 -2.6995 -3.6504 0.3207 -0.5308 -1.5121 0.3976 1.9742 -3.5802 -1.0197 -1.2937 1.3171
4.2889 -2.8163 5.7867 -4.5288 -1.9281 6.0112 -4.7461 -2.1305 -3.1059 4.3531 0.4126 -2.0052 4.8813 0.9360 0.1524 -4.1315 -0.5632 -1.4109 -0.0798 -1.6634 -2.3551 -0.3527 1.4958 1.5528 3.5543 -1.7329 5.0380 -4.1081 -0.8255 5.0720 2.3917 -2.3325 4.2871 -2.6098 -0.6568 5.1254 2.2137 -1.5986 2.9811 -2.0371 -0.7507 3.7328 1.7332 0.5299 -0.2967 0.8151 -1.8105 2.4499 -0.6078 -0.2613 3.7350 2.9288 -0.3908 -0.3305 -1.0341 0.5108 -4.1832 -2.7101 -0.9353 -3.2167 -0.5846 -0.0030 -0.8075 0.9979 4.2788 -3.9947 1.6925 3.1448 -3.7926 -0.4295 4.2149 -4.2558 1.0165 1.8605 -3.8380 -1.0596 3.0262 -4.2847 0.4981 -0.2398 0.1221 -1.7013 0.0520 -2.9004 0.0469 -0.5838 2.4873 4.1472 0.4051 -0.6668 -3.8506 -1.1167 -2.4678 -0.6968 -0.6578 -2.0187 -0.3119 1.8026 -4.0446 0.0209 0.3276 1.4420
5.1395 -3.4614 2.8396 -5.0205 0.2387 5.3747 -4.6105 1.9851 0.5199 3.3846 -1.8785 -2.3378 5.1286 -0.7516 -1.3919 -2.3358 2.7143 0.4773 -1.4124 -1.2397 -1.0813 0.6414 1.5736 1.9050 3.7693 -3.5263 3.4675 -3.9235 1.0432 4.7248 2.7825 -2.7999 2.5906 -2.5851 0.3930 4.9770 1.5625 -2.4092 3.3841 -1.9049 0.1690 3.6507 2.3895 0.0484 0.0291 0.4536 -1.9910 2.4454 -0.4474 -0.1668 3.8450 3.1507 -1.2493 -0.0999 -2.1812 0.5939 -3.2536 -3.0819 1.1433 -1.0722 0.1069 0.4646 -0.6400 0.9436 1.6634 -5.9809 -0.0179 2.5637 -5.7077 0.8909 0.3410 -5.3837 -1.0960 2.2215 -4.7964 -0.1120 0.0196 -4.5477 0.9294 -0.2244 0.3255 -1.8605 1.0156 -1.8326 0.1403 -0.5850 2.5901 4.0063 -1.2291 -1.3245 -3.2132 2.0118 -0.0112 -1.0632 -0.0659 -1.1440 -1.1265 1.0079 -4.2162 0.5727 0.3666 1.6749
-0.9921 -5.7602 4.3717 2.9932 2.5486 5.2113 3.1267 2.3783 -4.0063 -2.4337 0.8631 4.4983 -0.8537 -0.7825 4.4376 2.1089 0.2888 -3.4503 -0.2709 2.8173 -0.6247 -0.5847 -2.1055 0.3152 -0.0367 -4.5939 4.3116 2.8223 1.0531 5.1299 0.5814 -4.5298 2.9373 3.2632 0.5695 3.7710 1.6259 -3.4448 2.8949 2.2335 -0.3921 3.2478 -1.2186 0.5161 1.5986 1.8236 -2.9835 1.4674 2.3922 -0.6006 1.7614 -0.7296 1.0816 2.9101 -1.5236 2.3708 -3.3103 0.9074 2.2634 -3.1901 -0.4185 0.4967 -0.6826 -3.3196 0.1871 -6.5311 -2.2444 0.9557 -6.7794 -3.8743 0.1286 -5.1898 -1.6274 1.7086 -5.7029 -3.2979 0.8174 -4.1881 -0.0521 0.2143 0.6845 -0.3189 1.6500 -2.7419 1.4387 -1.5976 1.3185 -1.3153 0.2684 4.0193 2.0095 1.5081 -3.5271 -0.3231 1.7568 -1.2386 -2.1165 1.6239 -4.4521 0.2252 -1.2757 0.7290
2.0891 -5.7290 0.0326 4.4736 1.8833 1.7496 2.7923 -2.7594 -2.0468 -1.1380 2.7127 3.2401 -2.9563 3.7497 2.3314 0.4311 -2.6836 -1.6901 1.0677 1.3740 -0.2470 -1.8287 -2.0642 0.9071 2.0845 -5.1013 1.4027 3.9940 0.7338 2.5990 0.8211 -4.3005 1.5981 2.5481 0.9432 2.9770 1.0599 -3.2771 2.6788 1.7659 -0.2745 2.5656 -2.7260 0.7961 1.2129 -0.2419 -2.6624 3.1412 0.3816 -0.2679 3.1693 -2.9275 1.3504 2.6044 0.7422 1.3038 -3.1980 1.5943 -0.7268 -2.1804 -0.9846 0.2910 -0.3776 -2.8215 3.1724 -4.6687 -2.5285 1.9244 -5.0763 -1.9202 3.8735 -3.7718 -1.3181 1.2732 -4.6076 -0.8027 3.2686 -3.3312 -1.3148 0.2840 1.0263 0.4567 0.1588 -2.2470 -0.4108 -1.3358 2.5895 -2.3730 2.7364 2.6841 1.4644 -2.0794 -1.9534 0.2526 0.6818 -0.8469 -0.5015 1.9078 -3.7465 -1.2251 -1.1572 1.4795
4.7938 -5.7067 2.7572 -0.0089 4.3094 2.3624 2.5245 3.1446 -2.3054 -1.8803 -4.4945 2.8926 -0.5418 -2.9943 3.9704 1.8745 0.8452 -2.3216 -1.2518 2.0457 0.4137 1.2821 -1.6610 -0.2446 3.5549 -4.8507 2.6798 0.7086 3.7182 3.5521 3.8921 -3.4858 2.1295 0.3432 2.2617 3.7145 3.0320 -2.4591 2.8245 1.1180 1.4449 2.7112 -1.4168 -2.1165 0.9746 2.9105 -1.2031 1.9950 0.9731 -0.0300 2.9875 -2.1151 -2.2355 2.3087 -2.1049 2.3937 -2.4171 0.2771 2.4988 -1.9646 -1.0419 -0.1331 -0.3628 -3.0858 1.2293 -6.4199 -2.1317 2.1578 -6.2271 -3.8019 0.6775 -5.2835 -1.8046 2.5918 -4.8807 -3.4993 1.0782 -4.0357 -0.6732 -0.8023 0.8663 -0.8813 1.6363 -1.9382 1.5264 -0.7982 1.8903 -1.4065 -3.2514 3.1466 1.5443 2.0202 -2.2102 -1.0715 1.2409 -0.4940 -2.4401 2.0510 -3.8246 0.8022 -1.1231 0.7532
0.3941 -6.7068 2.1388 5.3583 -2.1739 2.0619 -0.0023 -3.3112 -2.5003 -1.3809 5.2132 2.2561 0.8842 4.9871 2.3590 -1.6854 -1.8898 -1.5748 1.6478 0.6506 -0.3008 -2.4153 -0.3981 1.6085 0.5914 -5.2115 2.1433 3.9132 -2.0507 1.6560 -0.5171 -4.5506 2.9251 3.1271 -1.3470 2.7350 -0.8653 -3.2302 2.2846 1.7343 -1.1261 2.2120 -1.3305 2.3513 2.0421 -1.0880 -2.1725 3.3436 0.8069 -0.6022 3.2798 -0.5290 3.1582 3.0358 0.7280 1.2907 -3.0488 0.3402 -0.9838 -2.2779 -0.5909 1.1142 0.1186 -1.9653 2.6145 -6.1048 -1.4060 1.3959 -6.2110 -1.6149 3.4796 -4.9922 -0.4702 0.9378 -5.2002 -0.7501 3.0550 -4.0534 -0.5603 1.1398 1.5650 0.0061 0.4028 -2.0553 -0.5638 -0.8941 2.9108 -0.2394 4.5262 2.4996 -0.5678 -1.9975 -2.0662 0.4778 0.7217 -0.6598 -0.1784 1.7217 -4.1459 -1.2884 -0.1143 2.0159
1.8353 -6.9028 1.0036 4.5622 1.3102 0.9637 1.1622 -2.8673 -2.4750 -2.4813 4.2363 2.6600 -0.2580 4.1000 3.1473 -0.9117 -2.1402 -1.5387 1.2690 1.3422 0.0273 -2.1742 -1.4771 1.4162 1.8474 -5.4140 1.2386 4.1532 -0.0527 1.4605 0.7282 -5.0311 2.1753 3.0644 0.0910 2.4937 0.2051 -3.6745 1.7800 1.9898 -0.9233 2.2064 -2.1363 1.3587 2.3587 -0.3465 -2.9416 2.9819 0.8951 -0.8322 3.2416 -1.6843 2.1997 3.5287 0.4024 1.7542 -2.7274 0.7157 -0.5751 -2.1080 -0.9724 0.8170 0.3260 -2.2337 2.6710 -5.9763 -2.2819 3.4243 -4.8629 -1.3065 1.5568 -6.0586 -1.4103 3.1193 -3.7414 -0.5003 1.2736 -5.0207 -0.9827 0.5906 1.7536 -0.0667 0.6115 -1.8506 -0.2920 -1.5108 2.7677 -1.3682 3.5929 3.0850 0.1881 -1.8424 -1.9903 0.1873 0.9605 -0.4056 -0.5707 2.0699 -3.8058 -1.2280 -0.8943 1.9456
3.4995 -5.9970 4.1274 1.0431 4.1789 4.9198 3.5401 3.4590 -1.7779 -1.6181 -2.7637 2.6644 -3.6558 -3.5720 2.0402 2.8818 1.1859 -2.1113 -0.6164 2.2951 -0.0655 1.2555 -1.8624 -0.5426 2.5035 -5.1579 3.3677 1.6496 2.8686 4.4847 3.1323 -3.8431 2.9788 0.6341 2.0702 3.7061 2.0853 -2.7594 3.0301 1.3459 1.1640 2.7332 -1.6962 -1.7155 -0.0491 2.4053 -1.6815 2.0221 0.5660 -0.1182 2.5685 -2.7800 -1.5849 0.9958 -0.9511 2.8709 -3.0420 1.2732 2.8684 -2.0857 -0.5987 0.1952 -1.0609 -3.6412 0.4439 -5.3265 -2.4655 0.8020 -5.8735 -3.9942 0.9069 -3.9965 -1.5402 1.6354 -5.1260 -3.1412 1.6835 -3.3057 -0.6825 -0.6075 0.1343 0.1197 2.0433 -2.3581 1.2044 -0.9921 1.6054 -2.7512 -2.7587 1.9227 2.5518 2.3624 -2.0159 -0.3918 1.5602 -1.0213 -1.8535 2.0385 -3.8811 0.6863 -1.2186 0.3383
-1.0758 -6.1164 3.5883 4.7314 -3.5619 1.6592 2.9973 -2.4203 -3.1868 -0.1006 2.7922 3.9557 0.3116 4.9897 3.5115 1.0399 -2.4344 -1.8159 1.7345 1.7534 -1.4673 -2.1690 0.3521 1.3821 -0.5632 -4.8289 2.9924 3.3805 -3.0184 1.2730 -1.1190 -3.6545 3.7597 3.0241 -1.8497 2.1575 -1.3953 -2.5156 2.8112 1.6800 -1.3273 1.7279 -0.3216 2.6970 1.0611 -1.1153 -1.1933 3.4902 1.1028 -0.4028 2.7721 0.8072 3.3186 1.8501 0.0751 1.1678 -3.9241 1.5496 -0.5551 -3.0902 -0.2321 0.8960 -0.5745 -4.0373 2.2828 -4.3630 -3.2067 3.0914 -3.6807 -3.5412 1.0368 -4.9206 -1.8142 2.7190 -3.5067 -2.2537 0.6859 -4.7506 -0.0058 1.2394 0.8090 0.3789 0.2307 -2.7707 -0.3365 -0.3356 2.6253 0.3062 3.8164 3.1687 1.7487 -1.8307 -2.6125 0.7393 1.0399 -1.5457 -1.3592 1.5522 -3.9993 -0.9607 0.3835 1.6136
4.8818 -2.7812 5.9988 -1.4529 2.6064 5.4618 1.1299 4.7726 0.3692 0.0376 -5.3669 -1.9075 1.1169 -5.1513 0.0904 2.0026 2.8740 -0.7898 -1.9210 1.1918 -0.0713 2.2252 -0.2961 0.1439 3.8660 -3.0180 4.9108 -2.1843 1.7980 4.4195 3.8105 -1.8195 3.9971 -1.5149 0.4563 4.2379 2.5937 -1.9321 3.1160 -1.2612 0.2316 2.7677 0.3963 -2.2989 -0.9994 1.9594 -0.5749 2.9245 -0.4310 -1.0078 2.5310 -0.4700 -3.4764 -0.6158 -1.8854 2.7242 -2.5907 -0.2653 3.3724 -0.9276 -0.2280 0.0407 -1.1759 -2.6098 0.6002 -6.2380 -3.1642 0.1533 -5.0969 -1.7571 1.7757 -6.2180 -2.9204 0.8549 -3.8499 -1.5166 2.4164 -5.0597 -0.0227 -1.0519 -0.2452 -0.6572 2.2940 -1.8098 0.8662 -0.6604 1.9843 0.3288 -4.7348 -0.7452 1.0317 3.5680 -0.5116 -1.0172 1.1411 -0.8993 -2.1084 1.9277 -3.8252 1.1408 -0.6288 0.6240
3.1644 -6.9690 3.1883 1.6256 4.4507 2.3412 3.4567 3.5673 -1.7951 -3.4936 -2.5330 2.8153 -1.9745 -1.3684 4.0564 2.8528 1.2575 -1.9006 -0.7040 2.4705 0.0593 0.5424 -2.2677 -0.4105 2.2313 -5.8099 3.4342 2.5192 3.2572 2.5689 2.2495 -4.8829 2.2446 1.6803 2.0646 2.9516 1.6455 -3.5548 2.6278 2.1040 0.8634 2.1443 -1.9490 -1.0917 0.7321 2.2788 -2.4548 1.8073 1.2891 -0.3337 2.5727 -2.6897 -0.5199 1.9176 -1.0186 2.7647 -2.9444 1.1999 2.8937 -1.9877 -0.5802 0.2846 -0.7162 -3.7692 0.3102 -5.1261 -4.0867 0.7032 -3.8793 -2.4932 0.6926 -5.7044 -3.1585 1.5205 -3.1194 -1.6266 1.4388 -4.9957 -0.6207 -0.3948 0.5548 0.0667 2.0206 -2.1915 1.3432 -1.3796 1.5747 -2.6493 -1.4994 3.0462 2.4933 2.4291 -1.9052 -0.4326 1.6533 -0.8140 -1.9662 1.8580 -3.6459 0.4701 -1.4409 0.4984
6.5908 -3.3297 3.3218 -3.0362 3.0090 2.9730 -3.3632 4.1221 -0.5665 0.0797 -5.5265 1.0760 1.2137 -4.3455 2.6656 -1.0984 3.3889 -0.3513 -2.6909 -0.5238 -0.3934 2.2967 -0.7444 0.0686 5.1133 -3.0935 3.1332 -1.7826 2.8398 3.7942 4.8588 -1.6485 2.7795 -1.3312 1.4007 3.7508 3.5641 -1.2059 3.4164 0.0227 1.3243 3.0902 -0.0498 -2.5333 0.3124 2.9925 -0.0129 2.6866 0.5753 -0.0769 3.1981 -0.6146 -3.3248 1.4684 -2.2131 0.4536 -3.2471 -2.6445 2.0663 -1.4794 -0.3838 -0.2720 -0.5125 -0.3286 2.3377 -6.6056 -1.1904 3.0508 -5.8588 -0.1048 0.9331 -6.3119 -1.8741 2.4206 -4.7446 -0.7290 0.3521 -5.2711 -0.0181 -1.0573 0.6464 -1.7217 1.0576 -1.9448 1.6430 -0.2815 2.2410 0.3409 -4.4211 1.8140 -2.2263 3.1758 -0.7806 -1.6890 0.0024 -0.8666 -1.6206 1.1357 -4.4314 1.4191 -0.6732 0.9294

>  <OB_ATOM_TYPES> (1a07C1)
C.3 C.3 C.3 O.co2 O.co2 O.2 O.2 O.2 C.3 C.3 C.3 C.3 C.3 C.3 C.3 C.3 C.3 C.3 C.3 N.am N.am C.ar C.ar C.ar C.ar C.ar C.3 C.3 N.am C.2 C.2 C.2 C.ar C.2

>  <ENSEMBLE_RMSD> (1a07C1)
1.384 1.786 1.991 2.025 2.036 2.055 2.266 2.275 2.513 2.525 2.530 2.558 2.563 2.596 2.631 2.690 2.789 2.800 2.801 2.818 2.860 2.877 2.900 2.970 2.980 2.998 3.004 3.012 3.049 3.051 3.067 3.071 3.083 3.124 3.185 3.198 3.232 3.303 3.401 3.426 3.499 3.640 3.671 3.764 3.767 3.775 3.809 3.880 3.919 4.068

$$$$
